6324647
  -OEChem-09062623483D

 81 87  0     1  0  0  0  0  0999 V2000
    3.5364    1.2235    0.4529 O   0  0  0  0  0  0  0  0  0  0  0  0
    0.3962   -2.0147    1.0805 O   0  0  0  0  0  0  0  0  0  0  0  0
    2.8663    1.7022   -2.2693 O   0  0  0  0  0  0  0  0  0  0  0  0
    5.1093    2.4694    1.6693 O   0  0  0  0  0  0  0  0  0  0  0  0
   -3.1583    0.7447    0.3500 O   0  0  0  0  0  0  0  0  0  0  0  0
   -4.4609    2.4817   -0.3858 O   0  0  0  0  0  0  0  0  0  0  0  0
   -1.6437   -1.6137   -0.8208 N   0  0  2  0  0  0  0  0  0  0  0  0
   -7.4085   -0.5560   -0.4126 N   0  0  0  0  0  0  0  0  0  0  0  0
    3.2454    0.1132   -0.4380 C   0  0  1  0  0  0  0  0  0  0  0  0
    4.6115   -0.4358   -1.0302 C   0  0  2  0  0  0  0  0  0  0  0  0
    5.3906   -1.0090    0.1939 C   0  0  1  0  0  0  0  0  0  0  0  0
    1.0183   -0.7434    0.7671 C   0  0  2  0  0  0  0  0  0  0  0  0
    0.1358    0.1132   -0.2275 C   0  0  2  0  0  0  0  0  0  0  0  0
    2.5159   -0.9331    0.4355 C   0  0  0  0  0  0  0  0  0  0  0  0
    2.2716    0.6425   -1.5235 C   0  0  1  0  0  0  0  0  0  0  0  0
    4.9314    1.4219    0.7227 C   0  0  1  0  0  0  0  0  0  0  0  0
    5.5007    0.7061   -1.5937 C   0  0  0  0  0  0  0  0  0  0  0  0
    0.9868    1.2045   -0.9153 C   0  0  0  0  0  0  0  0  0  0  0  0
    5.5605    0.1202    1.2397 C   0  0  0  0  0  0  0  0  0  0  0  0
    5.6001    1.8450   -0.5845 C   0  0  0  0  0  0  0  0  0  0  0  0
    4.6652   -2.2130    0.7991 C   0  0  0  0  0  0  0  0  0  0  0  0
    4.4245   -1.4935   -2.1327 C   0  0  0  0  0  0  0  0  0  0  0  0
    3.1989   -1.9699    0.9705 C   0  0  0  0  0  0  0  0  0  0  0  0
    0.9280    0.0357    2.1115 C   0  0  0  0  0  0  0  0  0  0  0  0
   -0.8087    0.8276    0.7424 C   0  0  0  0  0  0  0  0  0  0  0  0
   -0.6479   -0.6654   -1.3349 C   0  0  0  0  0  0  0  0  0  0  0  0
   -0.3651    0.7679    2.0035 C   0  0  0  0  0  0  0  0  0  0  0  0
   -2.0133    1.5915    0.3069 C   0  0  2  0  0  0  0  0  0  0  0  0
    0.3071   -2.9452    0.0100 C   0  0  0  0  0  0  0  0  0  0  0  0
   -1.0989   -2.9492   -0.5642 C   0  0  0  0  0  0  0  0  0  0  0  0
   -2.7997   -1.7188   -1.7136 C   0  0  0  0  0  0  0  0  0  0  0  0
   -2.2799    2.7888    1.2067 C   0  0  0  0  0  0  0  0  0  0  0  0
   -4.3483    1.3142   -0.0264 C   0  0  0  0  0  0  0  0  0  0  0  0
   -5.4816    0.3878    0.0417 C   0  0  0  0  0  0  0  0  0  0  0  0
   -6.5701    0.4668   -0.7716 C   0  0  0  0  0  0  0  0  0  0  0  0
   -5.6356   -0.6916    0.9181 C   0  0  0  0  0  0  0  0  0  0  0  0
   -6.8493   -1.2686    0.6159 C   0  0  0  0  0  0  0  0  0  0  0  0
   -6.9298    1.3951   -1.8617 C   0  0  0  0  0  0  0  0  0  0  0  0
   -4.7009   -1.1427    1.9685 C   0  0  0  0  0  0  0  0  0  0  0  0
    6.3901   -1.3438   -0.1152 H   0  0  0  0  0  0  0  0  0  0  0  0
    2.0320   -0.1534   -2.2359 H   0  0  0  0  0  0  0  0  0  0  0  0
    5.1381    1.0803   -2.5563 H   0  0  0  0  0  0  0  0  0  0  0  0
    6.5089    0.3229   -1.8026 H   0  0  0  0  0  0  0  0  0  0  0  0
    1.2419    2.0165   -0.2194 H   0  0  0  0  0  0  0  0  0  0  0  0
    0.4031    1.7073   -1.6993 H   0  0  0  0  0  0  0  0  0  0  0  0
    5.1061   -0.1519    2.2007 H   0  0  0  0  0  0  0  0  0  0  0  0
    6.6259    0.2755    1.4528 H   0  0  0  0  0  0  0  0  0  0  0  0
    6.6472    2.1276   -0.4220 H   0  0  0  0  0  0  0  0  0  0  0  0
    5.1042    2.7381   -0.9852 H   0  0  0  0  0  0  0  0  0  0  0  0
    5.1074   -2.4632    1.7710 H   0  0  0  0  0  0  0  0  0  0  0  0
    4.7998   -3.0963    0.1638 H   0  0  0  0  0  0  0  0  0  0  0  0
    5.3799   -1.9701   -2.3799 H   0  0  0  0  0  0  0  0  0  0  0  0
    3.7244   -2.2834   -1.8455 H   0  0  0  0  0  0  0  0  0  0  0  0
    4.0417   -1.0419   -3.0543 H   0  0  0  0  0  0  0  0  0  0  0  0
    2.6933   -2.6893    1.6089 H   0  0  0  0  0  0  0  0  0  0  0  0
    1.7339    0.7629    2.2548 H   0  0  0  0  0  0  0  0  0  0  0  0
    0.9073   -0.6392    2.9748 H   0  0  0  0  0  0  0  0  0  0  0  0
   -1.1631    0.0839   -1.9523 H   0  0  0  0  0  0  0  0  0  0  0  0
    0.0363   -1.1639   -2.0329 H   0  0  0  0  0  0  0  0  0  0  0  0
   -0.8374    1.2272    2.8601 H   0  0  0  0  0  0  0  0  0  0  0  0
    2.2535    1.9410   -2.9856 H   0  0  0  0  0  0  0  0  0  0  0  0
   -1.8618    1.9524   -0.7175 H   0  0  0  0  0  0  0  0  0  0  0  0
    5.0178    2.0907    2.5596 H   0  0  0  0  0  0  0  0  0  0  0  0
    0.5199   -3.9375    0.4230 H   0  0  0  0  0  0  0  0  0  0  0  0
    1.0554   -2.7630   -0.7691 H   0  0  0  0  0  0  0  0  0  0  0  0
   -1.0877   -3.5632   -1.4741 H   0  0  0  0  0  0  0  0  0  0  0  0
   -1.7673   -3.4440    0.1514 H   0  0  0  0  0  0  0  0  0  0  0  0
   -3.2669   -0.7434   -1.8796 H   0  0  0  0  0  0  0  0  0  0  0  0
   -3.5678   -2.3648   -1.2737 H   0  0  0  0  0  0  0  0  0  0  0  0
   -2.5233   -2.1267   -2.6929 H   0  0  0  0  0  0  0  0  0  0  0  0
   -2.8558    3.5731    0.7075 H   0  0  0  0  0  0  0  0  0  0  0  0
   -1.3485    3.2894    1.4995 H   0  0  0  0  0  0  0  0  0  0  0  0
   -2.8271    2.5134    2.1160 H   0  0  0  0  0  0  0  0  0  0  0  0
   -8.3030   -0.7577   -0.8382 H   0  0  0  0  0  0  0  0  0  0  0  0
   -7.3661   -2.1196    1.0378 H   0  0  0  0  0  0  0  0  0  0  0  0
   -6.1023    1.4982   -2.5713 H   0  0  0  0  0  0  0  0  0  0  0  0
   -7.8033    1.0458   -2.4223 H   0  0  0  0  0  0  0  0  0  0  0  0
   -7.1637    2.3858   -1.4590 H   0  0  0  0  0  0  0  0  0  0  0  0
   -3.8261   -1.6297    1.5262 H   0  0  0  0  0  0  0  0  0  0  0  0
   -4.3612   -0.3017    2.5818 H   0  0  0  0  0  0  0  0  0  0  0  0
   -5.1779   -1.8647    2.6400 H   0  0  0  0  0  0  0  0  0  0  0  0
  1  9  1  0  0  0  0
  1 16  1  0  0  0  0
  2 12  1  0  0  0  0
  2 29  1  0  0  0  0
  3 15  1  0  0  0  0
  3 61  1  0  0  0  0
  4 16  1  0  0  0  0
  4 63  1  0  0  0  0
  5 28  1  0  0  0  0
  5 33  1  0  0  0  0
  6 33  2  0  0  0  0
  7 26  1  0  0  0  0
  7 30  1  0  0  0  0
  7 31  1  0  0  0  0
  8 35  1  0  0  0  0
  8 37  1  0  0  0  0
  8 74  1  0  0  0  0
  9 10  1  0  0  0  0
  9 14  1  0  0  0  0
  9 15  1  0  0  0  0
 10 11  1  0  0  0  0
 10 17  1  0  0  0  0
 10 22  1  0  0  0  0
 11 19  1  0  0  0  0
 11 21  1  0  0  0  0
 11 40  1  0  0  0  0
 12 13  1  0  0  0  0
 12 14  1  0  0  0  0
 12 24  1  0  0  0  0
 13 18  1  0  0  0  0
 13 25  1  0  0  0  0
 13 26  1  0  0  0  0
 14 23  2  0  0  0  0
 15 18  1  0  0  0  0
 15 41  1  0  0  0  0
 16 19  1  0  0  0  0
 16 20  1  0  0  0  0
 17 20  1  0  0  0  0
 17 42  1  0  0  0  0
 17 43  1  0  0  0  0
 18 44  1  0  0  0  0
 18 45  1  0  0  0  0
 19 46  1  0  0  0  0
 19 47  1  0  0  0  0
 20 48  1  0  0  0  0
 20 49  1  0  0  0  0
 21 23  1  0  0  0  0
 21 50  1  0  0  0  0
 21 51  1  0  0  0  0
 22 52  1  0  0  0  0
 22 53  1  0  0  0  0
 22 54  1  0  0  0  0
 23 55  1  0  0  0  0
 24 27  1  0  0  0  0
 24 56  1  0  0  0  0
 24 57  1  0  0  0  0
 25 27  2  0  0  0  0
 25 28  1  0  0  0  0
 26 58  1  0  0  0  0
 26 59  1  0  0  0  0
 27 60  1  0  0  0  0
 28 32  1  0  0  0  0
 28 62  1  0  0  0  0
 29 30  1  0  0  0  0
 29 64  1  0  0  0  0
 29 65  1  0  0  0  0
 30 66  1  0  0  0  0
 30 67  1  0  0  0  0
 31 68  1  0  0  0  0
 31 69  1  0  0  0  0
 31 70  1  0  0  0  0
 32 71  1  0  0  0  0
 32 72  1  0  0  0  0
 32 73  1  0  0  0  0
 33 34  1  0  0  0  0
 34 35  2  0  0  0  0
 34 36  1  0  0  0  0
 35 38  1  0  0  0  0
 36 37  2  0  0  0  0
 36 39  1  0  0  0  0
 37 75  1  0  0  0  0
 38 76  1  0  0  0  0
 38 77  1  0  0  0  0
 38 78  1  0  0  0  0
 39 79  1  0  0  0  0
 39 80  1  0  0  0  0
 39 81  1  0  0  0  0
M  END
> <PUBCHEM_COMPOUND_CID>
6324647

> <PUBCHEM_CONFORMER_RMSD>
1

> <PUBCHEM_CONFORMER_DIVERSEORDER>
4
32
35
7
20
21
19
17
31
8
30
5
23
22
36
26
13
15
10
16
12
11
33
18
9
28
34
29
27
24
25
14
3
6
2
1

> <PUBCHEM_MMFF94_PARTIAL_CHARGES>
37
1 -0.56
12 0.42
13 0.14
14 -0.28
15 0.28
16 0.56
2 -0.56
21 0.14
23 -0.29
24 0.14
25 -0.28
26 0.27
27 -0.29
28 0.42
29 0.28
3 -0.68
30 0.27
31 0.27
33 0.81
34 -0.09
35 -0.33
36 -0.18
37 -0.3
38 0.18
39 0.18
4 -0.68
5 -0.43
55 0.15
6 -0.57
60 0.15
61 0.4
63 0.4
7 -0.81
74 0.27
75 0.15
8 0.03
9 0.42

> <PUBCHEM_EFFECTIVE_ROTOR_COUNT>
6.6

> <PUBCHEM_PHARMACOPHORE_FEATURES>
16
1 1 acceptor
1 2 acceptor
1 3 acceptor
1 3 donor
1 4 acceptor
1 4 donor
1 6 acceptor
1 7 cation
1 8 cation
1 8 donor
5 12 13 24 25 27 rings
5 8 34 35 36 37 rings
6 9 10 11 14 21 23 rings
6 9 12 13 14 15 18 rings
7 2 7 12 13 26 29 30 rings
8 1 9 10 11 16 17 19 20 rings

> <PUBCHEM_HEAVY_ATOM_COUNT>
39

> <PUBCHEM_ATOM_DEF_STEREO_COUNT>
8

> <PUBCHEM_ATOM_UDEF_STEREO_COUNT>
0

> <PUBCHEM_BOND_DEF_STEREO_COUNT>
0

> <PUBCHEM_BOND_UDEF_STEREO_COUNT>
0

> <PUBCHEM_ISOTOPIC_ATOM_COUNT>
0

> <PUBCHEM_COMPONENT_COUNT>
1

> <PUBCHEM_CACTVS_TAUTO_COUNT>
2

> <PUBCHEM_CONFORMER_ID>
006081A700000004

> <PUBCHEM_MMFF94_ENERGY>
135.3351

> <PUBCHEM_FEATURE_SELFOVERLAP>
81.886

> <PUBCHEM_SHAPE_FINGERPRINT>
10076449 9 15985112894803510764
11488393 25 17415856690835283431
11578080 2 17772461537605106216
11719270 70 18187362121313114419
12107698 1 16370720439942490309
12236239 1 18334577919315203221
12422481 6 17967249775898704926
12467345 10 18187368735578281955
12788726 201 18131358487756460400
13782708 43 17346323643949656045
13811026 1 18411978044357220792
14856354 85 14836121087794218165
15082195 135 17895773866915120156
15131766 46 16228036940913394172
15183329 4 17346319310501928871
15849732 13 18260547831249571540
18681886 176 18335137605004042777
19319366 153 18411689976706853427
20197701 30 18408322176906405339
20511986 3 17822280276537248203
21223535 225 15430302604862302663
21521721 280 18131354141518387313
22149856 69 17845951649624133091
23522609 53 15697175061369134569
23559900 14 18333725845708213401
23569917 315 18335988567038787346
249057 3 18273496776270751822
3178227 256 18272097128012141851
34797466 226 17704075114108450572
4258327 124 18044674207047523668
4340502 62 18342454850786694234
6669772 16 18127122198277908232
70251023 43 17824817850769846858
77296 10 17894919520547081259

> <PUBCHEM_SHAPE_MULTIPOLES>
757.42
16.98
2.73
1.92
17.36
0.43
-0.16
-2.69
-2.18
-0.36
0.14
-0.51
-0.16
0.44

> <PUBCHEM_SHAPE_SELFOVERLAP>
1678.172

> <PUBCHEM_SHAPE_VOLUME>
400.3

> <PUBCHEM_COORDINATE_TYPE>
2
5
10

$$$$
