107941
  -OEChem-07242613053D

 53 53  0     1  0  0  0  0  0999 V2000
   -4.5193    0.5685    0.8113 N   0  0  0  0  0  0  0  0  0  0  0  0
   -4.1089   -0.4117   -0.2005 C   0  0  2  0  0  0  0  0  0  0  0  0
   -5.1818   -1.4896   -0.3970 C   0  0  0  0  0  0  0  0  0  0  0  0
   -5.8069    1.2140    0.5270 C   0  0  2  0  0  0  0  0  0  0  0  0
   -6.5328   -0.8717   -0.7407 C   0  0  0  0  0  0  0  0  0  0  0  0
   -2.7901   -1.0486    0.2374 C   0  0  0  0  0  0  0  0  0  0  0  0
   -6.9153    0.1762    0.2994 C   0  0  0  0  0  0  0  0  0  0  0  0
   -1.6020   -0.1355   -0.0674 C   0  0  0  0  0  0  0  0  0  0  0  0
   -0.2489   -0.7598    0.2887 C   0  0  0  0  0  0  0  0  0  0  0  0
   -5.7069    2.2234   -0.6205 C   0  0  0  0  0  0  0  0  0  0  0  0
    0.9428    0.1255   -0.0856 C   0  0  0  0  0  0  0  0  0  0  0  0
    2.2959   -0.4928    0.2815 C   0  0  0  0  0  0  0  0  0  0  0  0
    3.4914    0.3576   -0.1570 C   0  0  0  0  0  0  0  0  0  0  0  0
    4.8146   -0.3198    0.2100 C   0  0  0  0  0  0  0  0  0  0  0  0
    6.0481    0.4747   -0.2288 C   0  0  0  0  0  0  0  0  0  0  0  0
    7.3706   -0.1894    0.1605 C   0  0  0  0  0  0  0  0  0  0  0  0
    8.5656    0.6077   -0.3645 C   0  0  0  0  0  0  0  0  0  0  0  0
    9.8838   -0.0290    0.0463 C   0  0  0  0  0  0  0  0  0  0  0  0
   -3.9536    0.0917   -1.1630 H   0  0  0  0  0  0  0  0  0  0  0  0
   -4.8853   -2.1758   -1.1993 H   0  0  0  0  0  0  0  0  0  0  0  0
   -5.2816   -2.0921    0.5155 H   0  0  0  0  0  0  0  0  0  0  0  0
   -6.0787    1.7852    1.4236 H   0  0  0  0  0  0  0  0  0  0  0  0
   -6.4900   -0.4158   -1.7366 H   0  0  0  0  0  0  0  0  0  0  0  0
   -7.3001   -1.6529   -0.7816 H   0  0  0  0  0  0  0  0  0  0  0  0
   -2.6407   -1.9913   -0.3050 H   0  0  0  0  0  0  0  0  0  0  0  0
   -2.8089   -1.3070    1.3039 H   0  0  0  0  0  0  0  0  0  0  0  0
   -7.1244   -0.3336    1.2495 H   0  0  0  0  0  0  0  0  0  0  0  0
   -7.8467    0.6711    0.0002 H   0  0  0  0  0  0  0  0  0  0  0  0
   -3.7998    1.2820    0.9189 H   0  0  0  0  0  0  0  0  0  0  0  0
   -1.7029    0.8103    0.4775 H   0  0  0  0  0  0  0  0  0  0  0  0
   -1.6022    0.1137   -1.1360 H   0  0  0  0  0  0  0  0  0  0  0  0
   -0.2219   -0.9682    1.3652 H   0  0  0  0  0  0  0  0  0  0  0  0
   -0.1514   -1.7249   -0.2237 H   0  0  0  0  0  0  0  0  0  0  0  0
   -4.9314    2.9698   -0.4153 H   0  0  0  0  0  0  0  0  0  0  0  0
   -6.6550    2.7595   -0.7387 H   0  0  0  0  0  0  0  0  0  0  0  0
   -5.4734    1.7511   -1.5792 H   0  0  0  0  0  0  0  0  0  0  0  0
    0.9178    0.3211   -1.1647 H   0  0  0  0  0  0  0  0  0  0  0  0
    0.8445    1.0967    0.4148 H   0  0  0  0  0  0  0  0  0  0  0  0
    2.3713   -1.4844   -0.1823 H   0  0  0  0  0  0  0  0  0  0  0  0
    2.3370   -0.6469    1.3668 H   0  0  0  0  0  0  0  0  0  0  0  0
    3.4501    0.5180   -1.2409 H   0  0  0  0  0  0  0  0  0  0  0  0
    3.4368    1.3436    0.3195 H   0  0  0  0  0  0  0  0  0  0  0  0
    4.8514   -1.3158   -0.2486 H   0  0  0  0  0  0  0  0  0  0  0  0
    4.8536   -0.4699    1.2960 H   0  0  0  0  0  0  0  0  0  0  0  0
    6.0152    0.6066   -1.3175 H   0  0  0  0  0  0  0  0  0  0  0  0
    6.0049    1.4782    0.2125 H   0  0  0  0  0  0  0  0  0  0  0  0
    7.4294   -0.2729    1.2523 H   0  0  0  0  0  0  0  0  0  0  0  0
    7.4031   -1.2081   -0.2442 H   0  0  0  0  0  0  0  0  0  0  0  0
    8.5206    0.6700   -1.4580 H   0  0  0  0  0  0  0  0  0  0  0  0
    8.5274    1.6333    0.0210 H   0  0  0  0  0  0  0  0  0  0  0  0
   10.7241    0.5563   -0.3401 H   0  0  0  0  0  0  0  0  0  0  0  0
    9.9679   -1.0463   -0.3491 H   0  0  0  0  0  0  0  0  0  0  0  0
    9.9745   -0.0750    1.1362 H   0  0  0  0  0  0  0  0  0  0  0  0
  1  2  1  0  0  0  0
  1  4  1  0  0  0  0
  1 29  1  0  0  0  0
  2  3  1  0  0  0  0
  2  6  1  0  0  0  0
  2 19  1  0  0  0  0
  3  5  1  0  0  0  0
  3 20  1  0  0  0  0
  3 21  1  0  0  0  0
  4  7  1  0  0  0  0
  4 10  1  0  0  0  0
  4 22  1  0  0  0  0
  5  7  1  0  0  0  0
  5 23  1  0  0  0  0
  5 24  1  0  0  0  0
  6  8  1  0  0  0  0
  6 25  1  0  0  0  0
  6 26  1  0  0  0  0
  7 27  1  0  0  0  0
  7 28  1  0  0  0  0
  8  9  1  0  0  0  0
  8 30  1  0  0  0  0
  8 31  1  0  0  0  0
  9 11  1  0  0  0  0
  9 32  1  0  0  0  0
  9 33  1  0  0  0  0
 10 34  1  0  0  0  0
 10 35  1  0  0  0  0
 10 36  1  0  0  0  0
 11 12  1  0  0  0  0
 11 37  1  0  0  0  0
 11 38  1  0  0  0  0
 12 13  1  0  0  0  0
 12 39  1  0  0  0  0
 12 40  1  0  0  0  0
 13 14  1  0  0  0  0
 13 41  1  0  0  0  0
 13 42  1  0  0  0  0
 14 15  1  0  0  0  0
 14 43  1  0  0  0  0
 14 44  1  0  0  0  0
 15 16  1  0  0  0  0
 15 45  1  0  0  0  0
 15 46  1  0  0  0  0
 16 17  1  0  0  0  0
 16 47  1  0  0  0  0
 16 48  1  0  0  0  0
 17 18  1  0  0  0  0
 17 49  1  0  0  0  0
 17 50  1  0  0  0  0
 18 51  1  0  0  0  0
 18 52  1  0  0  0  0
 18 53  1  0  0  0  0
M  END
> <PUBCHEM_COMPOUND_CID>
107941

> <PUBCHEM_CONFORMER_RMSD>
1.2

> <PUBCHEM_CONFORMER_DIVERSEORDER>
1
101
107
59
54
93
67
99
115
3
21
11
40
129
84
102
12
8
86
13
51
83
9
76
111
41
46
92
17
85
5
116
138
103
117
27
7
113
71
88
10
133
132
26
42
130
19
105
134
31
90
30
78
57
32
15
18
24
72
23
87
98
121
136
74
47
81
38
94
36
16
119
61
63
48
56
50
110
55
95
70
14
52
39
37
69
125
20
128
104
4
43
60
137
127
91
49
34
118
25
29
123
33
135
126
108
22
58
100
66
45
106
89
35
82
6
28
77
65
64
53
114
124
131
2
96
120
62
68
112
122
73
44
79
109
75
80
97

> <PUBCHEM_MMFF94_PARTIAL_CHARGES>
4
1 -0.9
2 0.27
29 0.36
4 0.27

> <PUBCHEM_EFFECTIVE_ROTOR_COUNT>
11.2

> <PUBCHEM_PHARMACOPHORE_FEATURES>
4
1 1 cation
1 1 donor
1 18 hydrophobe
6 1 2 3 4 5 7 rings

> <PUBCHEM_HEAVY_ATOM_COUNT>
18

> <PUBCHEM_ATOM_DEF_STEREO_COUNT>
2

> <PUBCHEM_ATOM_UDEF_STEREO_COUNT>
0

> <PUBCHEM_BOND_DEF_STEREO_COUNT>
0

> <PUBCHEM_BOND_UDEF_STEREO_COUNT>
0

> <PUBCHEM_ISOTOPIC_ATOM_COUNT>
0

> <PUBCHEM_COMPONENT_COUNT>
1

> <PUBCHEM_CACTVS_TAUTO_COUNT>
1

> <PUBCHEM_CONFORMER_ID>
0001A5A500000001

> <PUBCHEM_MMFF94_ENERGY>
-3.3404

> <PUBCHEM_FEATURE_SELFOVERLAP>
20.297

> <PUBCHEM_SHAPE_FINGERPRINT>
10066227 49 17203057275294526398
10299344 5 18333448747017853402
10730089 173 18412545397185188697
11315181 36 18040998462487087395
12091667 2 18409450297743765699
13533116 47 17967805012898056146
13885169 127 18413671296965164396
13964095 4 18272370875678080682
14251764 18 18187080651000220330
14251764 46 17967532380657432019
14428016 248 17385732405044456228
14729087 3 18411417297933291672
15183329 4 18333446543024228616
15419008 47 16630803292721924408
155225 1 18410575047048259577
17093844 174 18408886248151992835
18006028 8 14836406934904756890
195137 175 18334300881414437700
20281389 69 18335419071179783169
20621476 8 18408324368041040902
21095123 145 15285370534595438282
21150785 3 13686297972499207624
21304253 13 18259987093758949412
21315763 28 18411418448810232820
22224240 67 15936410061579249978
232437 2 18412826889806024670
23521765 1 18342458153970102506
246663 6 12107787402807348208
2835820 82 17242158069579723698
28498 318 18202004309945641254
33532 11 10375882862071008340
33684 2 18412262844435268394
5758199 1 17821728338774569970
59567204 34 18341332198039606273
5969126 39 14476966657577447666
67123 10 18272369798179249126
8209 1 18272089409929543082

> <PUBCHEM_SHAPE_MULTIPOLES>
365.45
30.45
1.32
0.75
55.78
0.45
-0.01
4.74
-1.81
-2.96
-0.17
-0.51
0.04
-0.5

> <PUBCHEM_SHAPE_SELFOVERLAP>
680.239

> <PUBCHEM_SHAPE_VOLUME>
228.8

> <PUBCHEM_COORDINATE_TYPE>
2
5
10

$$$$
